src/optimization/test_app/uc_test.raw
0  100.000


   0, 3, 0.0000, 0.0000, 0.0000, 0.0000, 1, 0.0000, 0.0000,   'Bus-0', 100.0000, 2
   1, 1, 0.0000, 0.0000, 0.0000, 0.0000, 1, 0.0000, 0.0000,   'Bus-1', 100.0000, 2
   2, 1, 0.0000, 0.0000, 0.0000, 0.0000, 1, 0.0000, 0.0000,   'Bus-2', 100.0000, 2
   3, 1, 0.0000, 0.0000, 0.0000, 0.0000, 1, 0.0000, 0.0000,   'Bus-3', 100.0000, 2
   4, 1, 0.0000, 0.0000, 0.0000, 0.0000, 1, 0.0000, 0.0000,   'Bus-4', 100.0000, 2
   5, 1, 0.0000, 0.0000, 0.0000, 0.0000, 1, 0.0000, 0.0000,   'Bus-5', 100.0000, 2
   6, 1, 0.0000, 0.0000, 0.0000, 0.0000, 1, 0.0000, 0.0000,   'Bus-6', 100.0000, 2
   7, 1, 0.0000, 0.0000, 0.0000, 0.0000, 1, 0.0000, 0.0000,   'Bus-7', 100.0000, 2
   8, 1, 0.0000, 0.0000, 0.0000, 0.0000, 1, 0.0000, 0.0000,   'Bus-8', 100.0000, 2
   9, 1, 0.0000, 0.0000, 0.0000, 0.0000, 1, 0.0000, 0.0000,   'Bus-9', 100.0000, 2
  10, 1, 0.0000, 0.0000, 0.0000, 0.0000, 1, 0.0000, 0.0000,  'Bus-10', 100.0000, 2
  11, 1, 0.0000, 0.0000, 0.0000, 0.0000, 1, 0.0000, 0.0000,  'Bus-11', 100.0000, 2
  12, 1, 0.0000, 0.0000, 0.0000, 0.0000, 1, 0.0000, 0.0000,  'Bus-12', 100.0000, 2
  13, 1, 0.0000, 0.0000, 0.0000, 0.0000, 1, 0.0000, 0.0000,  'Bus-13', 100.0000, 2
  14, 1, 0.0000, 0.0000, 0.0000, 0.0000, 1, 0.0000, 0.0000,  'Bus-14', 100.0000, 2
  15, 1, 0.0000, 0.0000, 0.0000, 0.0000, 1, 0.0000, 0.0000,  'Bus-15', 100.0000, 2
  16, 1, 0.0000, 0.0000, 0.0000, 0.0000, 1, 0.0000, 0.0000,  'Bus-16', 100.0000, 2
  17, 1, 0.0000, 0.0000, 0.0000, 0.0000, 1, 0.0000, 0.0000,  'Bus-17', 100.0000, 2
  18, 1, 0.0000, 0.0000, 0.0000, 0.0000, 1, 0.0000, 0.0000,  'Bus-18', 100.0000, 2
  19, 1, 0.0000, 0.0000, 0.0000, 0.0000, 1, 0.0000, 0.0000,  'Bus-19', 100.0000, 2
  20, 1, 0.0000, 0.0000, 0.0000, 0.0000, 1, 0.0000, 0.0000,  'Bus-20', 100.0000, 2
  21, 1, 0.0000, 0.0000, 0.0000, 0.0000, 1, 0.0000, 0.0000,  'Bus-21', 100.0000, 2
  22, 1, 0.0000, 0.0000, 0.0000, 0.0000, 1, 0.0000, 0.0000,  'Bus-22', 100.0000, 2
  23, 1, 0.0000, 0.0000, 0.0000, 0.0000, 1, 0.0000, 0.0000,  'Bus-23', 100.0000, 2
  24, 1, 0.0000, 0.0000, 0.0000, 0.0000, 1, 0.0000, 0.0000,  'Bus-24', 100.0000, 2
  25, 1, 0.0000, 0.0000, 0.0000, 0.0000, 1, 0.0000, 0.0000,  'Bus-25', 100.0000, 2
  26, 1, 0.0000, 0.0000, 0.0000, 0.0000, 1, 0.0000, 0.0000,  'Bus-26', 100.0000, 2
  27, 1, 0.0000, 0.0000, 0.0000, 0.0000, 1, 0.0000, 0.0000,  'Bus-27', 100.0000, 2
  28, 1, 0.0000, 0.0000, 0.0000, 0.0000, 1, 0.0000, 0.0000,  'Bus-28', 100.0000, 2
  29, 1, 0.0000, 0.0000, 0.0000, 0.0000, 1, 0.0000, 0.0000,  'Bus-29', 100.0000, 2
  30, 1, 0.0000, 0.0000, 0.0000, 0.0000, 1, 0.0000, 0.0000,  'Bus-30', 100.0000, 2
  31, 1, 0.0000, 0.0000, 0.0000, 0.0000, 1, 0.0000, 0.0000,  'Bus-31', 100.0000, 2
  32, 1, 0.0000, 0.0000, 0.0000, 0.0000, 1, 0.0000, 0.0000,  'Bus-32', 100.0000, 2
  33, 1, 0.0000, 0.0000, 0.0000, 0.0000, 1, 0.0000, 0.0000,  'Bus-33', 100.0000, 2
  34, 1, 0.0000, 0.0000, 0.0000, 0.0000, 1, 0.0000, 0.0000,  'Bus-34', 100.0000, 2
  35, 1, 0.0000, 0.0000, 0.0000, 0.0000, 1, 0.0000, 0.0000,  'Bus-35', 100.0000, 2
  36, 1, 0.0000, 0.0000, 0.0000, 0.0000, 1, 0.0000, 0.0000,  'Bus-36', 100.0000, 2
  37, 1, 0.0000, 0.0000, 0.0000, 0.0000, 1, 0.0000, 0.0000,  'Bus-37', 100.0000, 2
  38, 1, 0.0000, 0.0000, 0.0000, 0.0000, 1, 0.0000, 0.0000,  'Bus-38', 100.0000, 2
  39, 1, 0.0000, 0.0000, 0.0000, 0.0000, 1, 0.0000, 0.0000,  'Bus-39', 100.0000, 2
  40, 1, 0.0000, 0.0000, 0.0000, 0.0000, 1, 0.0000, 0.0000,  'Bus-40', 100.0000, 2
  41, 1, 0.0000, 0.0000, 0.0000, 0.0000, 1, 0.0000, 0.0000,  'Bus-41', 100.0000, 2
  42, 1, 0.0000, 0.0000, 0.0000, 0.0000, 1, 0.0000, 0.0000,  'Bus-42', 100.0000, 2
  43, 1, 0.0000, 0.0000, 0.0000, 0.0000, 1, 0.0000, 0.0000,  'Bus-43', 100.0000, 2
  44, 1, 0.0000, 0.0000, 0.0000, 0.0000, 1, 0.0000, 0.0000,  'Bus-44', 100.0000, 2
  45, 1, 0.0000, 0.0000, 0.0000, 0.0000, 1, 0.0000, 0.0000,  'Bus-45', 100.0000, 2
  46, 1, 0.0000, 0.0000, 0.0000, 0.0000, 1, 0.0000, 0.0000,  'Bus-46', 100.0000, 2
  47, 1, 0.0000, 0.0000, 0.0000, 0.0000, 1, 0.0000, 0.0000,  'Bus-47', 100.0000, 2
  48, 1, 0.0000, 0.0000, 0.0000, 0.0000, 1, 0.0000, 0.0000,  'Bus-48', 100.0000, 2
  49, 1, 0.0000, 0.0000, 0.0000, 0.0000, 1, 0.0000, 0.0000,  'Bus-49', 100.0000, 2
  50, 1, 0.0000, 0.0000, 0.0000, 0.0000, 1, 0.0000, 0.0000,  'Bus-50', 100.0000, 2
  51, 1, 0.0000, 0.0000, 0.0000, 0.0000, 1, 0.0000, 0.0000,  'Bus-51', 100.0000, 2
  52, 1, 0.0000, 0.0000, 0.0000, 0.0000, 1, 0.0000, 0.0000,  'Bus-52', 100.0000, 2
  53, 1, 0.0000, 0.0000, 0.0000, 0.0000, 1, 0.0000, 0.0000,  'Bus-53', 100.0000, 2
  54, 1, 0.0000, 0.0000, 0.0000, 0.0000, 1, 0.0000, 0.0000,  'Bus-54', 100.0000, 2
  55, 1, 0.0000, 0.0000, 0.0000, 0.0000, 1, 0.0000, 0.0000,  'Bus-55', 100.0000, 2
  56, 1, 0.0000, 0.0000, 0.0000, 0.0000, 1, 0.0000, 0.0000,  'Bus-56', 100.0000, 2
  57, 1, 0.0000, 0.0000, 0.0000, 0.0000, 1, 0.0000, 0.0000,  'Bus-57', 100.0000, 2
  58, 1, 0.0000, 0.0000, 0.0000, 0.0000, 1, 0.0000, 0.0000,  'Bus-58', 100.0000, 2
  59, 1, 0.0000, 0.0000, 0.0000, 0.0000, 1, 0.0000, 0.0000,  'Bus-59', 100.0000, 2
  60, 1, 0.0000, 0.0000, 0.0000, 0.0000, 1, 0.0000, 0.0000,  'Bus-60', 100.0000, 2
  61, 1, 0.0000, 0.0000, 0.0000, 0.0000, 1, 0.0000, 0.0000,  'Bus-61', 100.0000, 2
  62, 1, 0.0000, 0.0000, 0.0000, 0.0000, 1, 0.0000, 0.0000,  'Bus-62', 100.0000, 2
  63, 1, 0.0000, 0.0000, 0.0000, 0.0000, 1, 0.0000, 0.0000,  'Bus-63', 100.0000, 2
  64, 1, 0.0000, 0.0000, 0.0000, 0.0000, 1, 0.0000, 0.0000,  'Bus-64', 100.0000, 2
  65, 1, 0.0000, 0.0000, 0.0000, 0.0000, 1, 0.0000, 0.0000,  'Bus-65', 100.0000, 2
  66, 1, 0.0000, 0.0000, 0.0000, 0.0000, 1, 0.0000, 0.0000,  'Bus-66', 100.0000, 2
  67, 1, 0.0000, 0.0000, 0.0000, 0.0000, 1, 0.0000, 0.0000,  'Bus-67', 100.0000, 2
  68, 1, 0.0000, 0.0000, 0.0000, 0.0000, 1, 0.0000, 0.0000,  'Bus-68', 100.0000, 2
  69, 1, 0.0000, 0.0000, 0.0000, 0.0000, 1, 0.0000, 0.0000,  'Bus-69', 100.0000, 2
  70, 1, 0.0000, 0.0000, 0.0000, 0.0000, 1, 0.0000, 0.0000,  'Bus-70', 100.0000, 2
  71, 1, 0.0000, 0.0000, 0.0000, 0.0000, 1, 0.0000, 0.0000,  'Bus-71', 100.0000, 2
  72, 1, 0.0000, 0.0000, 0.0000, 0.0000, 1, 0.0000, 0.0000,  'Bus-72', 100.0000, 2
0 / END OF BUS DATA, BEGIN GENERATOR DATA
   3, '1 ', 100.0, 50.0, 99990.000, -9999.000, 1.0, 0, 100.000, 0.0000, 1.000, 0.0000, 0.0000, 1.0, 1, 100.000, 0.0000, 0.000
  14, '1 ', 100.0, 50.0, 99990.000, -9999.000, 1.0, 0, 100.000, 0.0000, 1.000, 0.0000, 0.0000, 1.0, 1, 100.000, 0.0000, 0.000
  25, '1 ', 100.0, 50.0, 99990.000, -9999.000, 1.0, 0, 100.000, 0.0000, 1.000, 0.0000, 0.0000, 1.0, 1, 100.000, 0.0000, 0.000
   6, '1 ', 100.0, 50.0, 99990.000, -9999.000, 1.0, 0, 100.000, 0.0000, 1.000, 0.0000, 0.0000, 1.0, 1, 100.000, 0.0000, 0.000
  17, '1 ', 100.0, 50.0, 99990.000, -9999.000, 1.0, 0, 100.000, 0.0000, 1.000, 0.0000, 0.0000, 1.0, 1, 100.000, 0.0000, 0.000
  28, '1 ', 100.0, 50.0, 99990.000, -9999.000, 1.0, 0, 100.000, 0.0000, 1.000, 0.0000, 0.0000, 1.0, 1, 100.000, 0.0000, 0.000
   0, '1 ', 100.0, 50.0, 99990.000, -9999.000, 1.0, 0, 100.000, 0.0000, 1.000, 0.0000, 0.0000, 1.0, 1, 100.000, 0.0000, 0.000
  11, '1 ', 100.0, 50.0, 99990.000, -9999.000, 1.0, 0, 100.000, 0.0000, 1.000, 0.0000, 0.0000, 1.0, 1, 100.000, 0.0000, 0.000
  22, '1 ', 100.0, 50.0, 99990.000, -9999.000, 1.0, 0, 100.000, 0.0000, 1.000, 0.0000, 0.0000, 1.0, 1, 100.000, 0.0000, 0.000
   7, '1 ', 100.0, 50.0, 99990.000, -9999.000, 1.0, 0, 100.000, 0.0000, 1.000, 0.0000, 0.0000, 1.0, 1, 100.000, 0.0000, 0.000
  18, '1 ', 100.0, 50.0, 99990.000, -9999.000, 1.0, 0, 100.000, 0.0000, 1.000, 0.0000, 0.0000, 1.0, 1, 100.000, 0.0000, 0.000
  29, '1 ', 100.0, 50.0, 99990.000, -9999.000, 1.0, 0, 100.000, 0.0000, 1.000, 0.0000, 0.0000, 1.0, 1, 100.000, 0.0000, 0.000
   1, '1 ', 100.0, 50.0, 99990.000, -9999.000, 1.0, 0, 100.000, 0.0000, 1.000, 0.0000, 0.0000, 1.0, 1, 100.000, 0.0000, 0.000
  12, '1 ', 100.0, 50.0, 99990.000, -9999.000, 1.0, 0, 100.000, 0.0000, 1.000, 0.0000, 0.0000, 1.0, 1, 100.000, 0.0000, 0.000
  23, '1 ', 100.0, 50.0, 99990.000, -9999.000, 1.0, 0, 100.000, 0.0000, 1.000, 0.0000, 0.0000, 1.0, 1, 100.000, 0.0000, 0.000
   2, '1 ', 100.0, 50.0, 99990.000, -9999.000, 1.0, 0, 100.000, 0.0000, 1.000, 0.0000, 0.0000, 1.0, 1, 100.000, 0.0000, 0.000
  13, '1 ', 100.0, 50.0, 99990.000, -9999.000, 1.0, 0, 100.000, 0.0000, 1.000, 0.0000, 0.0000, 1.0, 1, 100.000, 0.0000, 0.000
  24, '1 ', 100.0, 50.0, 99990.000, -9999.000, 1.0, 0, 100.000, 0.0000, 1.000, 0.0000, 0.0000, 1.0, 1, 100.000, 0.0000, 0.000
   9, '1 ', 100.0, 50.0, 99990.000, -9999.000, 1.0, 0, 100.000, 0.0000, 1.000, 0.0000, 0.0000, 1.0, 1, 100.000, 0.0000, 0.000
  20, '1 ', 100.0, 50.0, 99990.000, -9999.000, 1.0, 0, 100.000, 0.0000, 1.000, 0.0000, 0.0000, 1.0, 1, 100.000, 0.0000, 0.000
  31, '1 ', 100.0, 50.0, 99990.000, -9999.000, 1.0, 0, 100.000, 0.0000, 1.000, 0.0000, 0.0000, 1.0, 1, 100.000, 0.0000, 0.000
   8, '1 ', 100.0, 50.0, 99990.000, -9999.000, 1.0, 0, 100.000, 0.0000, 1.000, 0.0000, 0.0000, 1.0, 1, 100.000, 0.0000, 0.000
  19, '1 ', 100.0, 50.0, 99990.000, -9999.000, 1.0, 0, 100.000, 0.0000, 1.000, 0.0000, 0.0000, 1.0, 1, 100.000, 0.0000, 0.000
  30, '1 ', 100.0, 50.0, 99990.000, -9999.000, 1.0, 0, 100.000, 0.0000, 1.000, 0.0000, 0.0000, 1.0, 1, 100.000, 0.0000, 0.000
  10, '1 ', 100.0, 50.0, 99990.000, -9999.000, 1.0, 0, 100.000, 0.0000, 1.000, 0.0000, 0.0000, 1.0, 1, 100.000, 0.0000, 0.000
  21, '1 ', 100.0, 50.0, 99990.000, -9999.000, 1.0, 0, 100.000, 0.0000, 1.000, 0.0000, 0.0000, 1.0, 1, 100.000, 0.0000, 0.000
  32, '1 ', 100.0, 50.0, 99990.000, -9999.000, 1.0, 0, 100.000, 0.0000, 1.000, 0.0000, 0.0000, 1.0, 1, 100.000, 0.0000, 0.000
0 / END OF GENERATOR DATA, BEGIN BRANCH DATA
   0,    1, '1 ', 0.0140, 0.0030, 0.0000, 175.0000, 0.0000, 0.0000, 1.0000, 0.0000, 0.0000, 0.0000, 0.0000, 0.0000, 1
   0,   33, '1 ', 0.2110, 0.0550, 0.0000, 175.0000, 0.0000, 0.0000, 1.0000, 0.0000, 0.0000, 0.0000, 0.0000, 0.0000, 1
   0,   35, '1 ', 0.0850, 0.0220, 0.0000, 175.0000, 0.0000, 0.0000, 1.0000, 0.0000, 0.0000, 0.0000, 0.0000, 0.0000, 1
   1,   34, '1 ', 0.1270, 0.0330, 0.0000, 175.0000, 0.0000, 0.0000, 1.0000, 0.0000, 0.0000, 0.0000, 0.0000, 0.0000, 1
   1,   36, '1 ', 0.1920, 0.0500, 0.0000, 175.0000, 0.0000, 0.0000, 1.0000, 0.0000, 0.0000, 0.0000, 0.0000, 0.0000, 1
  33,   38, '1 ', 0.1190, 0.0310, 0.0000, 175.0000, 0.0000, 0.0000, 1.0000, 0.0000, 0.0000, 0.0000, 0.0000, 0.0000, 1
  33,   45, '1 ', 0.0840, 0.0020, 0.0000, 400.0000, 0.0000, 0.0000, 1.0000, 0.0000, 0.0000, 0.0000, 0.0000, 0.0000, 1
  34,   38, '1 ', 0.1040, 0.0270, 0.0000, 175.0000, 0.0000, 0.0000, 1.0000, 0.0000, 0.0000, 0.0000, 0.0000, 0.0000, 1
  35,   39, '1 ', 0.0880, 0.0230, 0.0000, 175.0000, 0.0000, 0.0000, 1.0000, 0.0000, 0.0000, 0.0000, 0.0000, 0.0000, 1
  36,   39, '1 ', 0.0610, 0.0140, 0.0000, 175.0000, 0.0000, 0.0000, 1.0000, 0.0000, 0.0000, 0.0000, 0.0000, 0.0000, 1
   2,   37, '1 ', 0.0610, 0.0160, 0.0000, 175.0000, 0.0000, 0.0000, 1.0000, 0.0000, 0.0000, 0.0000, 0.0000, 0.0000, 1
   2,   46, '1 ', 0.1610, 0.0420, 0.0000, 175.0000, 0.0000, 0.0000, 1.0000, 0.0000, 0.0000, 0.0000, 0.0000, 0.0000, 1
  37,   38, '1 ', 0.1650, 0.0430, 0.0000, 175.0000, 0.0000, 0.0000, 1.0000, 0.0000, 0.0000, 0.0000, 0.0000, 0.0000, 1
  37,   39, '1 ', 0.1650, 0.0430, 0.0000, 175.0000, 0.0000, 0.0000, 1.0000, 0.0000, 0.0000, 0.0000, 0.0000, 0.0000, 1
  38,   40, '1 ', 0.0840, 0.0020, 0.0000, 400.0000, 0.0000, 0.0000, 1.0000, 0.0000, 0.0000, 0.0000, 0.0000, 0.0000, 1
  38,   41, '1 ', 0.0840, 0.0020, 0.0000, 400.0000, 0.0000, 0.0000, 1.0000, 0.0000, 0.0000, 0.0000, 0.0000, 0.0000, 1
  39,   40, '1 ', 0.0840, 0.0020, 0.0000, 400.0000, 0.0000, 0.0000, 1.0000, 0.0000, 0.0000, 0.0000, 0.0000, 0.0000, 1
  39,   41, '1 ', 0.0840, 0.0020, 0.0000, 400.0000, 0.0000, 0.0000, 1.0000, 0.0000, 0.0000, 0.0000, 0.0000, 0.0000, 1
  40,    3, '1 ', 0.0480, 0.0060, 0.0000, 500.0000, 0.0000, 0.0000, 1.0000, 0.0000, 0.0000, 0.0000, 0.0000, 0.0000, 1
  40,    4, '1 ', 0.0420, 0.0050, 0.0000, 500.0000, 0.0000, 0.0000, 1.0000, 0.0000, 0.0000, 0.0000, 0.0000, 0.0000, 1
  41,    3, '1 ', 0.0480, 0.0060, 0.0000, 500.0000, 0.0000, 0.0000, 1.0000, 0.0000, 0.0000, 0.0000, 0.0000, 0.0000, 1
  41,   10, '1 ', 0.0970, 0.0120, 0.0000, 500.0000, 0.0000, 0.0000, 1.0000, 0.0000, 0.0000, 0.0000, 0.0000, 0.0000, 1
   3,   10, '1 ', 0.0870, 0.0110, 0.0000, 500.0000, 0.0000, 0.0000, 1.0000, 0.0000, 0.0000, 0.0000, 0.0000, 0.0000, 1
   3,   16, '1 ', 0.0750, 0.0100, 0.0000, 500.0000, 0.0000, 0.0000, 1.0000, 0.0000, 0.0000, 0.0000, 0.0000, 0.0000, 1
   4,    6, '1 ', 0.0590, 0.0050, 0.0000, 500.0000, 0.0000, 0.0000, 1.0000, 0.0000, 0.0000, 0.0000, 0.0000, 0.0000, 1
   5,    6, '1 ', 0.0170, 0.0020, 0.0000, 500.0000, 0.0000, 0.0000, 1.0000, 0.0000, 0.0000, 0.0000, 0.0000, 0.0000, 1
   5,    8, '1 ', 0.0490, 0.0060, 0.0000, 500.0000, 0.0000, 0.0000, 1.0000, 0.0000, 0.0000, 0.0000, 0.0000, 0.0000, 1
   5,    8, '1 ', 0.0490, 0.0060, 0.0000, 500.0000, 0.0000, 0.0000, 1.0000, 0.0000, 0.0000, 0.0000, 0.0000, 0.0000, 1
   5,   45, '1 ', 0.0520, 0.0070, 0.0000, 500.0000, 0.0000, 0.0000, 1.0000, 0.0000, 0.0000, 0.0000, 0.0000, 0.0000, 1
   6,   42, '1 ', 0.0260, 0.0030, 0.0000, 500.0000, 0.0000, 0.0000, 1.0000, 0.0000, 0.0000, 0.0000, 0.0000, 0.0000, 1
   6,   43, '1 ', 0.0230, 0.0030, 0.0000, 500.0000, 0.0000, 0.0000, 1.0000, 0.0000, 0.0000, 0.0000, 0.0000, 0.0000, 1
  42,    7, '1 ', 0.0140, 0.0020, 0.0000, 500.0000, 0.0000, 0.0000, 1.0000, 0.0000, 0.0000, 0.0000, 0.0000, 0.0000, 1
  42,    9, '1 ', 0.1050, 0.0140, 0.0000, 500.0000, 0.0000, 0.0000, 1.0000, 0.0000, 0.0000, 0.0000, 0.0000, 0.0000, 1
   7,    8, '1 ', 0.0260, 0.0030, 0.0000, 500.0000, 0.0000, 0.0000, 1.0000, 0.0000, 0.0000, 0.0000, 0.0000, 0.0000, 1
   7,    8, '1 ', 0.0260, 0.0030, 0.0000, 500.0000, 0.0000, 0.0000, 1.0000, 0.0000, 0.0000, 0.0000, 0.0000, 0.0000, 1
  43,   44, '1 ', 0.0400, 0.0050, 0.0000, 500.0000, 0.0000, 0.0000, 1.0000, 0.0000, 0.0000, 0.0000, 0.0000, 0.0000, 1
  43,   44, '1 ', 0.0400, 0.0050, 0.0000, 500.0000, 0.0000, 0.0000, 1.0000, 0.0000, 0.0000, 0.0000, 0.0000, 0.0000, 1
  44,   10, '1 ', 0.0220, 0.0030, 0.0000, 500.0000, 0.0000, 0.0000, 1.0000, 0.0000, 0.0000, 0.0000, 0.0000, 0.0000, 1
  44,   10, '1 ', 0.0220, 0.0030, 0.0000, 500.0000, 0.0000, 0.0000, 1.0000, 0.0000, 0.0000, 0.0000, 0.0000, 0.0000, 1
   8,    9, '1 ', 0.0680, 0.0090, 0.0000, 500.0000, 0.0000, 0.0000, 1.0000, 0.0000, 0.0000, 0.0000, 0.0000, 0.0000, 1
  10,   55, '1 ', 0.0740, 0.0100, 0.0000, 500.0000, 0.0000, 0.0000, 1.0000, 0.0000, 0.0000, 0.0000, 0.0000, 0.0000, 1
  11,   12, '1 ', 0.0140, 0.0030, 0.0000, 175.0000, 0.0000, 0.0000, 1.0000, 0.0000, 0.0000, 0.0000, 0.0000, 0.0000, 1
  11,   46, '1 ', 0.2110, 0.0550, 0.0000, 175.0000, 0.0000, 0.0000, 1.0000, 0.0000, 0.0000, 0.0000, 0.0000, 0.0000, 1
  11,   48, '1 ', 0.0850, 0.0220, 0.0000, 175.0000, 0.0000, 0.0000, 1.0000, 0.0000, 0.0000, 0.0000, 0.0000, 0.0000, 1
  12,   47, '1 ', 0.1270, 0.0330, 0.0000, 175.0000, 0.0000, 0.0000, 1.0000, 0.0000, 0.0000, 0.0000, 0.0000, 0.0000, 1
  12,   49, '1 ', 0.1920, 0.0500, 0.0000, 175.0000, 0.0000, 0.0000, 1.0000, 0.0000, 0.0000, 0.0000, 0.0000, 0.0000, 1
  46,   51, '1 ', 0.1190, 0.0310, 0.0000, 175.0000, 0.0000, 0.0000, 1.0000, 0.0000, 0.0000, 0.0000, 0.0000, 0.0000, 1
  46,   58, '1 ', 0.0840, 0.0020, 0.0000, 400.0000, 0.0000, 0.0000, 1.0000, 0.0000, 0.0000, 0.0000, 0.0000, 0.0000, 1
  47,   51, '1 ', 0.1040, 0.0270, 0.0000, 175.0000, 0.0000, 0.0000, 1.0000, 0.0000, 0.0000, 0.0000, 0.0000, 0.0000, 1
  48,   52, '1 ', 0.0880, 0.0230, 0.0000, 175.0000, 0.0000, 0.0000, 1.0000, 0.0000, 0.0000, 0.0000, 0.0000, 0.0000, 1
  49,   52, '1 ', 0.0610, 0.0140, 0.0000, 175.0000, 0.0000, 0.0000, 1.0000, 0.0000, 0.0000, 0.0000, 0.0000, 0.0000, 1
  13,   50, '1 ', 0.0610, 0.0160, 0.0000, 175.0000, 0.0000, 0.0000, 1.0000, 0.0000, 0.0000, 0.0000, 0.0000, 0.0000, 1
  50,   51, '1 ', 0.1650, 0.0430, 0.0000, 175.0000, 0.0000, 0.0000, 1.0000, 0.0000, 0.0000, 0.0000, 0.0000, 0.0000, 1
  50,   52, '1 ', 0.1650, 0.0430, 0.0000, 175.0000, 0.0000, 0.0000, 1.0000, 0.0000, 0.0000, 0.0000, 0.0000, 0.0000, 1
  51,   53, '1 ', 0.0840, 0.0020, 0.0000, 400.0000, 0.0000, 0.0000, 1.0000, 0.0000, 0.0000, 0.0000, 0.0000, 0.0000, 1
  51,   54, '1 ', 0.0840, 0.0020, 0.0000, 400.0000, 0.0000, 0.0000, 1.0000, 0.0000, 0.0000, 0.0000, 0.0000, 0.0000, 1
  52,   53, '1 ', 0.0840, 0.0020, 0.0000, 400.0000, 0.0000, 0.0000, 1.0000, 0.0000, 0.0000, 0.0000, 0.0000, 0.0000, 1
  52,   54, '1 ', 0.0840, 0.0020, 0.0000, 400.0000, 0.0000, 0.0000, 1.0000, 0.0000, 0.0000, 0.0000, 0.0000, 0.0000, 1
  53,   14, '1 ', 0.0480, 0.0060, 0.0000, 500.0000, 0.0000, 0.0000, 1.0000, 0.0000, 0.0000, 0.0000, 0.0000, 0.0000, 1
  53,   15, '1 ', 0.0420, 0.0050, 0.0000, 500.0000, 0.0000, 0.0000, 1.0000, 0.0000, 0.0000, 0.0000, 0.0000, 0.0000, 1
  54,   14, '1 ', 0.0480, 0.0060, 0.0000, 500.0000, 0.0000, 0.0000, 1.0000, 0.0000, 0.0000, 0.0000, 0.0000, 0.0000, 1
  54,   21, '1 ', 0.0970, 0.0120, 0.0000, 500.0000, 0.0000, 0.0000, 1.0000, 0.0000, 0.0000, 0.0000, 0.0000, 0.0000, 1
  14,   21, '1 ', 0.0870, 0.0110, 0.0000, 500.0000, 0.0000, 0.0000, 1.0000, 0.0000, 0.0000, 0.0000, 0.0000, 0.0000, 1
  15,   17, '1 ', 0.0590, 0.0050, 0.0000, 500.0000, 0.0000, 0.0000, 1.0000, 0.0000, 0.0000, 0.0000, 0.0000, 0.0000, 1
  16,   17, '1 ', 0.0170, 0.0020, 0.0000, 500.0000, 0.0000, 0.0000, 1.0000, 0.0000, 0.0000, 0.0000, 0.0000, 0.0000, 1
  16,   19, '1 ', 0.0490, 0.0060, 0.0000, 500.0000, 0.0000, 0.0000, 1.0000, 0.0000, 0.0000, 0.0000, 0.0000, 0.0000, 1
  16,   19, '1 ', 0.0490, 0.0060, 0.0000, 500.0000, 0.0000, 0.0000, 1.0000, 0.0000, 0.0000, 0.0000, 0.0000, 0.0000, 1
  16,   58, '1 ', 0.0520, 0.0070, 0.0000, 500.0000, 0.0000, 0.0000, 1.0000, 0.0000, 0.0000, 0.0000, 0.0000, 0.0000, 1
  17,   55, '1 ', 0.0260, 0.0030, 0.0000, 500.0000, 0.0000, 0.0000, 1.0000, 0.0000, 0.0000, 0.0000, 0.0000, 0.0000, 1
  17,   56, '1 ', 0.0230, 0.0030, 0.0000, 500.0000, 0.0000, 0.0000, 1.0000, 0.0000, 0.0000, 0.0000, 0.0000, 0.0000, 1
  55,   18, '1 ', 0.0140, 0.0020, 0.0000, 500.0000, 0.0000, 0.0000, 1.0000, 0.0000, 0.0000, 0.0000, 0.0000, 0.0000, 1
  55,   20, '1 ', 0.1050, 0.0140, 0.0000, 500.0000, 0.0000, 0.0000, 1.0000, 0.0000, 0.0000, 0.0000, 0.0000, 0.0000, 1
  18,   19, '1 ', 0.0260, 0.0030, 0.0000, 500.0000, 0.0000, 0.0000, 1.0000, 0.0000, 0.0000, 0.0000, 0.0000, 0.0000, 1
  18,   19, '1 ', 0.0260, 0.0030, 0.0000, 500.0000, 0.0000, 0.0000, 1.0000, 0.0000, 0.0000, 0.0000, 0.0000, 0.0000, 1
  56,   57, '1 ', 0.0400, 0.0050, 0.0000, 500.0000, 0.0000, 0.0000, 1.0000, 0.0000, 0.0000, 0.0000, 0.0000, 0.0000, 1
  56,   57, '1 ', 0.0400, 0.0050, 0.0000, 500.0000, 0.0000, 0.0000, 1.0000, 0.0000, 0.0000, 0.0000, 0.0000, 0.0000, 1
  57,   21, '1 ', 0.0220, 0.0030, 0.0000, 500.0000, 0.0000, 0.0000, 1.0000, 0.0000, 0.0000, 0.0000, 0.0000, 0.0000, 1
  57,   21, '1 ', 0.0220, 0.0030, 0.0000, 500.0000, 0.0000, 0.0000, 1.0000, 0.0000, 0.0000, 0.0000, 0.0000, 0.0000, 1
  19,   20, '1 ', 0.0680, 0.0090, 0.0000, 500.0000, 0.0000, 0.0000, 1.0000, 0.0000, 0.0000, 0.0000, 0.0000, 0.0000, 1
  22,   23, '1 ', 0.0140, 0.0030, 0.0000, 175.0000, 0.0000, 0.0000, 1.0000, 0.0000, 0.0000, 0.0000, 0.0000, 0.0000, 1
  22,   59, '1 ', 0.2110, 0.0550, 0.0000, 175.0000, 0.0000, 0.0000, 1.0000, 0.0000, 0.0000, 0.0000, 0.0000, 0.0000, 1
  22,   61, '1 ', 0.0850, 0.0220, 0.0000, 175.0000, 0.0000, 0.0000, 1.0000, 0.0000, 0.0000, 0.0000, 0.0000, 0.0000, 1
  23,   60, '1 ', 0.1270, 0.0330, 0.0000, 175.0000, 0.0000, 0.0000, 1.0000, 0.0000, 0.0000, 0.0000, 0.0000, 0.0000, 1
  23,   62, '1 ', 0.1920, 0.0500, 0.0000, 175.0000, 0.0000, 0.0000, 1.0000, 0.0000, 0.0000, 0.0000, 0.0000, 0.0000, 1
  59,   64, '1 ', 0.1190, 0.0310, 0.0000, 175.0000, 0.0000, 0.0000, 1.0000, 0.0000, 0.0000, 0.0000, 0.0000, 0.0000, 1
  59,   71, '1 ', 0.0840, 0.0020, 0.0000, 400.0000, 0.0000, 0.0000, 1.0000, 0.0000, 0.0000, 0.0000, 0.0000, 0.0000, 1
  60,   64, '1 ', 0.1040, 0.0270, 0.0000, 175.0000, 0.0000, 0.0000, 1.0000, 0.0000, 0.0000, 0.0000, 0.0000, 0.0000, 1
  61,   65, '1 ', 0.0880, 0.0230, 0.0000, 175.0000, 0.0000, 0.0000, 1.0000, 0.0000, 0.0000, 0.0000, 0.0000, 0.0000, 1
  62,   65, '1 ', 0.0610, 0.0140, 0.0000, 175.0000, 0.0000, 0.0000, 1.0000, 0.0000, 0.0000, 0.0000, 0.0000, 0.0000, 1
  24,   63, '1 ', 0.0610, 0.0160, 0.0000, 175.0000, 0.0000, 0.0000, 1.0000, 0.0000, 0.0000, 0.0000, 0.0000, 0.0000, 1
  63,   64, '1 ', 0.1650, 0.0430, 0.0000, 175.0000, 0.0000, 0.0000, 1.0000, 0.0000, 0.0000, 0.0000, 0.0000, 0.0000, 1
  63,   65, '1 ', 0.1650, 0.0430, 0.0000, 175.0000, 0.0000, 0.0000, 1.0000, 0.0000, 0.0000, 0.0000, 0.0000, 0.0000, 1
  64,   66, '1 ', 0.0840, 0.0020, 0.0000, 400.0000, 0.0000, 0.0000, 1.0000, 0.0000, 0.0000, 0.0000, 0.0000, 0.0000, 1
  64,   67, '1 ', 0.0840, 0.0020, 0.0000, 400.0000, 0.0000, 0.0000, 1.0000, 0.0000, 0.0000, 0.0000, 0.0000, 0.0000, 1
  65,   66, '1 ', 0.0840, 0.0020, 0.0000, 400.0000, 0.0000, 0.0000, 1.0000, 0.0000, 0.0000, 0.0000, 0.0000, 0.0000, 1
  65,   67, '1 ', 0.0840, 0.0020, 0.0000, 400.0000, 0.0000, 0.0000, 1.0000, 0.0000, 0.0000, 0.0000, 0.0000, 0.0000, 1
  66,   25, '1 ', 0.0480, 0.0060, 0.0000, 500.0000, 0.0000, 0.0000, 1.0000, 0.0000, 0.0000, 0.0000, 0.0000, 0.0000, 1
  66,   26, '1 ', 0.0420, 0.0050, 0.0000, 500.0000, 0.0000, 0.0000, 1.0000, 0.0000, 0.0000, 0.0000, 0.0000, 0.0000, 1
  67,   25, '1 ', 0.0480, 0.0060, 0.0000, 500.0000, 0.0000, 0.0000, 1.0000, 0.0000, 0.0000, 0.0000, 0.0000, 0.0000, 1
  67,   32, '1 ', 0.0970, 0.0120, 0.0000, 500.0000, 0.0000, 0.0000, 1.0000, 0.0000, 0.0000, 0.0000, 0.0000, 0.0000, 1
  25,   32, '1 ', 0.0870, 0.0110, 0.0000, 500.0000, 0.0000, 0.0000, 1.0000, 0.0000, 0.0000, 0.0000, 0.0000, 0.0000, 1
  26,   28, '1 ', 0.0590, 0.0050, 0.0000, 500.0000, 0.0000, 0.0000, 1.0000, 0.0000, 0.0000, 0.0000, 0.0000, 0.0000, 1
  27,   28, '1 ', 0.0170, 0.0020, 0.0000, 500.0000, 0.0000, 0.0000, 1.0000, 0.0000, 0.0000, 0.0000, 0.0000, 0.0000, 1
  27,   30, '1 ', 0.0490, 0.0060, 0.0000, 500.0000, 0.0000, 0.0000, 1.0000, 0.0000, 0.0000, 0.0000, 0.0000, 0.0000, 1
  27,   30, '1 ', 0.0490, 0.0060, 0.0000, 500.0000, 0.0000, 0.0000, 1.0000, 0.0000, 0.0000, 0.0000, 0.0000, 0.0000, 1
  27,   71, '1 ', 0.0520, 0.0070, 0.0000, 500.0000, 0.0000, 0.0000, 1.0000, 0.0000, 0.0000, 0.0000, 0.0000, 0.0000, 1
  28,   68, '1 ', 0.0260, 0.0030, 0.0000, 500.0000, 0.0000, 0.0000, 1.0000, 0.0000, 0.0000, 0.0000, 0.0000, 0.0000, 1
  28,   69, '1 ', 0.0230, 0.0030, 0.0000, 500.0000, 0.0000, 0.0000, 1.0000, 0.0000, 0.0000, 0.0000, 0.0000, 0.0000, 1
  68,   29, '1 ', 0.0140, 0.0020, 0.0000, 500.0000, 0.0000, 0.0000, 1.0000, 0.0000, 0.0000, 0.0000, 0.0000, 0.0000, 1
  68,   31, '1 ', 0.1050, 0.0140, 0.0000, 500.0000, 0.0000, 0.0000, 1.0000, 0.0000, 0.0000, 0.0000, 0.0000, 0.0000, 1
  29,   30, '1 ', 0.0260, 0.0030, 0.0000, 500.0000, 0.0000, 0.0000, 1.0000, 0.0000, 0.0000, 0.0000, 0.0000, 0.0000, 1
  29,   30, '1 ', 0.0260, 0.0030, 0.0000, 500.0000, 0.0000, 0.0000, 1.0000, 0.0000, 0.0000, 0.0000, 0.0000, 0.0000, 1
  69,   70, '1 ', 0.0400, 0.0050, 0.0000, 500.0000, 0.0000, 0.0000, 1.0000, 0.0000, 0.0000, 0.0000, 0.0000, 0.0000, 1
  69,   70, '1 ', 0.0400, 0.0050, 0.0000, 500.0000, 0.0000, 0.0000, 1.0000, 0.0000, 0.0000, 0.0000, 0.0000, 0.0000, 1
  70,   32, '1 ', 0.0220, 0.0030, 0.0000, 500.0000, 0.0000, 0.0000, 1.0000, 0.0000, 0.0000, 0.0000, 0.0000, 0.0000, 1
  70,   32, '1 ', 0.0220, 0.0030, 0.0000, 500.0000, 0.0000, 0.0000, 1.0000, 0.0000, 0.0000, 0.0000, 0.0000, 0.0000, 1
  30,   31, '1 ', 0.0680, 0.0090, 0.0000, 500.0000, 0.0000, 0.0000, 1.0000, 0.0000, 0.0000, 0.0000, 0.0000, 0.0000, 1
  72,    8, '1 ', 0.0970, 0.0120, 0.0000, 500.0000, 0.0000, 0.0000, 1.0000, 0.0000, 0.0000, 0.0000, 0.0000, 0.0000, 1
  29,   21, '1 ', 0.1040, 0.0130, 0.0000, 500.0000, 0.0000, 0.0000, 1.0000, 0.0000, 0.0000, 0.0000, 0.0000, 0.0000, 1
  32,   72, '1 ', 0.0090, 0.0020, 0.0000, 722.0000, 0.0000, 0.0000, 1.0000, 0.0000, 0.0000, 0.0000, 0.0000, 0.0000, 1
0 / END OF BRANCH DATA, BEGIN TRANSFORMER ADJUSTMENT DATA
0 / END OF TRANSFORMER ADJUSTMENT DATA, BEGIN AREA DATA
0 / END OF AREA DATA, BEGIN TWO-TERMINAL DC DATA
0 / END OF TWO-TERMINAL DATA, BEGIN SWITCHED SHUNT DATA
0 / END OF SWITCHED SHUNT DATA
